Version 4
SHEET 1 1032 680
WIRE 32 80 -160 80
WIRE 240 80 112 80
WIRE 496 80 320 80
WIRE 560 80 496 80
WIRE 672 80 624 80
WIRE 752 80 672 80
WIRE 864 80 752 80
WIRE 240 128 240 80
WIRE 320 128 320 80
WIRE 496 128 496 80
WIRE 752 128 752 80
WIRE 864 128 864 80
WIRE -160 144 -160 80
WIRE 496 208 496 192
WIRE 496 208 432 208
WIRE 752 224 752 192
WIRE 864 224 864 192
WIRE 240 240 240 208
WIRE 320 240 320 208
WIRE 496 240 496 208
WIRE -160 256 -160 224
WIRE 560 304 496 304
WIRE 672 304 672 80
WIRE 672 304 624 304
WIRE 432 320 432 208
FLAG 240 240 0
FLAG 320 240 0
FLAG -160 256 0
FLAG 432 320 0
FLAG 752 224 0
FLAG 864 224 0
SYMBOL voltage -160 128 R0
SYMATTR InstName V1
SYMBOL ind2 224 112 R0
SYMATTR InstName L1
SYMATTR Value 1µ
SYMATTR Type ind
SYMBOL ind2 304 112 R0
SYMATTR InstName L2
SYMATTR Value 9µ
SYMATTR Type ind
SYMBOL res 128 64 R90
WINDOW 0 0 56 VBottom 2
WINDOW 3 -74 48 VTop 2
SYMATTR InstName F1
SYMATTR Value R = if(I(x) > I_fuse, R_open, R_closed)
SYMBOL diode 560 96 R270
WINDOW 0 32 32 VTop 2
WINDOW 3 0 32 VBottom 2
SYMATTR InstName D1
SYMBOL diode 512 192 R180
WINDOW 0 24 64 Left 2
WINDOW 3 24 0 Left 2
SYMATTR InstName D2
SYMBOL diode 480 240 R0
WINDOW 3 38 25 Left 2
SYMATTR InstName D3
SYMBOL diode 560 320 R270
WINDOW 0 32 32 VTop 2
WINDOW 3 0 32 VBottom 2
SYMATTR InstName D4
SYMBOL cap 736 128 R0
SYMATTR InstName C1
SYMATTR Value 100n
SYMBOL cap 848 128 R0
SYMATTR InstName C2
SYMATTR Value 1µ
TEXT 224 56 Left 2 !K1 L1 L2 1
TEXT -192 -32 Left 2 !.param I_fuse=5 R_open=1e6 R_closed=0.01
