Version 4
SHEET 1 1928 1060
WIRE -400 -192 -544 -192
WIRE 368 -192 -400 -192
WIRE 1616 -192 368 -192
WIRE 1616 -144 1616 -192
WIRE 1792 -144 1616 -144
WIRE 368 -128 368 -192
WIRE 544 -128 368 -128
WIRE -400 -80 -400 -192
WIRE 368 -48 368 -128
WIRE 1616 -48 1616 -144
WIRE 544 -32 544 -128
WIRE 1792 -32 1792 -144
WIRE -400 16 -400 -16
WIRE 272 32 256 32
WIRE 320 32 272 32
WIRE 1520 32 1504 32
WIRE 1568 32 1520 32
WIRE 368 48 368 32
WIRE 272 64 272 32
WIRE 1520 64 1520 32
WIRE 368 128 368 48
WIRE 544 128 544 32
WIRE 544 128 368 128
WIRE 1616 144 1616 48
WIRE 1792 144 1792 32
WIRE 1792 144 1616 144
WIRE 272 176 272 144
WIRE 1520 176 1520 144
WIRE -544 224 -544 -192
WIRE -112 240 -112 160
WIRE 1088 240 1088 160
WIRE -544 352 -544 304
WIRE 368 416 368 128
WIRE 576 416 576 368
WIRE 576 416 368 416
WIRE 768 416 576 416
WIRE 896 416 848 416
WIRE 1136 416 1136 368
WIRE 1136 416 976 416
WIRE 1616 416 1616 144
WIRE 1616 416 1136 416
WIRE 1616 512 1616 416
WIRE 1808 512 1616 512
WIRE 368 528 368 416
WIRE 544 528 368 528
WIRE 368 592 368 528
WIRE 1616 592 1616 512
WIRE 544 608 544 528
WIRE 1808 608 1808 512
WIRE 272 672 256 672
WIRE 320 672 272 672
WIRE 1520 672 1504 672
WIRE 1568 672 1520 672
WIRE 272 704 272 672
WIRE 1520 704 1520 672
WIRE 368 752 368 688
WIRE 544 752 544 672
WIRE 544 752 368 752
WIRE 1616 768 1616 688
WIRE 1808 768 1808 672
WIRE 1808 768 1616 768
WIRE 272 816 272 784
WIRE 368 816 368 752
WIRE 1520 816 1520 784
WIRE 1616 832 1616 768
WIRE -112 880 -112 800
WIRE 1088 880 1088 800
FLAG -112 240 0
FLAG -112 880 0
FLAG 1088 240 0
FLAG 1088 880 0
FLAG 368 816 0
FLAG -544 352 0
FLAG -400 16 0
FLAG 576 368 A
FLAG 1136 368 B
FLAG 1616 832 0
FLAG 1520 176 0
FLAG 1520 816 0
FLAG 272 816 0
FLAG 272 176 0
SYMBOL voltage -544 208 R0
WINDOW 123 0 0 Left 0
WINDOW 39 0 0 Left 0
SYMATTR InstName V5
SYMATTR Value 24
SYMBOL cap -416 -80 R0
SYMATTR InstName C1
SYMATTR Value 47µ
SYMBOL ind 752 432 R270
WINDOW 0 32 56 VTop 2
WINDOW 3 5 56 VBottom 2
SYMATTR InstName L1
SYMATTR Value 10m
SYMBOL res 992 400 R90
WINDOW 0 0 56 VBottom 2
WINDOW 3 32 56 VTop 2
SYMATTR InstName R1
SYMATTR Value 10
SYMBOL nmos 320 -48 R0
SYMATTR InstName M1
SYMATTR Value IRFZ44N
SYMBOL nmos 320 592 R0
SYMATTR InstName M2
SYMATTR Value IRFZ44N
SYMBOL nmos 1568 592 R0
SYMATTR InstName M3
SYMATTR Value IRFZ44N
SYMBOL nmos 1568 -48 R0
SYMATTR InstName M4
SYMATTR Value IRFZ44N
SYMBOL res 272 16 R90
WINDOW 0 0 56 VBottom 2
WINDOW 3 32 56 VTop 2
SYMATTR InstName R2
SYMATTR Value 50
SYMBOL res 272 656 R90
WINDOW 0 0 56 VBottom 2
WINDOW 3 32 56 VTop 2
SYMATTR InstName R3
SYMATTR Value 50
SYMBOL res 1520 16 R90
WINDOW 0 0 56 VBottom 2
WINDOW 3 32 56 VTop 2
SYMATTR InstName R4
SYMATTR Value 50
SYMBOL res 1520 656 R90
WINDOW 0 0 56 VBottom 2
WINDOW 3 32 56 VTop 2
SYMATTR InstName R5
SYMATTR Value 50
SYMBOL schottky 560 32 R180
WINDOW 0 24 64 Left 2
WINDOW 3 24 0 Left 2
SYMATTR InstName D1
SYMBOL schottky 560 672 R180
WINDOW 0 24 64 Left 2
WINDOW 3 24 0 Left 2
SYMATTR InstName D2
SYMBOL schottky 1824 672 R180
WINDOW 0 24 64 Left 2
WINDOW 3 24 0 Left 2
SYMATTR InstName D3
SYMBOL schottky 1808 32 R180
WINDOW 0 24 64 Left 2
WINDOW 3 24 0 Left 2
SYMATTR InstName D4
SYMBOL voltage -112 64 R0
WINDOW 123 0 0 Left 0
WINDOW 39 0 0 Left 0
WINDOW 3 -57 -98 VRight 1
SYMATTR InstName V2
SYMATTR Value PULSE(0 3.3 0 10n 10n {Ton_upper} {Tperiod})
SYMBOL voltage -112 704 R0
WINDOW 123 0 0 Left 0
WINDOW 39 0 0 Left 0
WINDOW 3 -59 -93 VRight 1
SYMATTR InstName V1
SYMATTR Value PULSE(0 3.3 {DeadTime} 10n 10n {Ton_lower} {Tperiod})
SYMBOL voltage 1088 704 R0
WINDOW 123 0 0 Left 0
WINDOW 39 0 0 Left 0
WINDOW 3 -52 -154 VRight 1
SYMATTR InstName V3
SYMATTR Value PULSE(0 3.3 {DeadTime} 10n 10n {Ton_lower} {Tperiod})
SYMBOL voltage 1088 64 R0
WINDOW 123 0 0 Left 0
WINDOW 39 0 0 Left 0
WINDOW 3 -49 -118 VRight 1
SYMATTR InstName V4
SYMATTR Value PULSE(0 3.3 0 10n 10n {Ton_upper} {Tperiod})
SYMBOL res 256 48 R0
SYMATTR InstName R6
SYMATTR Value 10k
SYMBOL res 256 688 R0
SYMATTR InstName R7
SYMATTR Value 10k
SYMBOL res 1504 688 R0
SYMATTR InstName R8
SYMATTR Value 10k
SYMBOL res 1504 48 R0
SYMATTR InstName R9
SYMATTR Value 10k
SYMBOL AutoGenerated\\IR2110 784 784 R0
SYMATTR InstName U1
TEXT 248 -488 Left 6 ;Single Phase  Inverter
TEXT 512 -416 Left 2 !.tran 0 100m 40m
TEXT 808 344 Left 2 ;AC MOTOR
TEXT -320 472 Left 2 !.param Ton_upper=0.499m\n.param Ton_lower=0.499m\n.param Tperiod=1m\n.param DeadTime=1u
TEXT -312 432 Left 2 ;PWM signal settings
